Version 4
SHEET 1 880 680
WIRE 224 160 16 160
WIRE 400 176 288 176
WIRE 224 192 192 192
WIRE 256 224 256 208
WIRE 16 256 16 240
WIRE 96 320 48 320
WIRE 192 320 192 192
WIRE 192 320 176 320
WIRE 240 320 192 320
WIRE 400 320 400 176
WIRE 400 320 320 320
WIRE 48 368 48 320
WIRE 48 384 48 368
WIRE 192 384 192 320
WIRE 48 512 48 464
WIRE 112 512 48 512
WIRE 192 512 192 464
WIRE 192 512 112 512
WIRE 112 544 112 512
FLAG 16 256 0
FLAG 256 224 0
FLAG 112 544 0
FLAG 48 368 VCC
FLAG 256 144 VCC
SYMBOL Opamps\\LT1014 256 112 R0
SYMATTR InstName U1
SYMBOL voltage 16 144 R0
WINDOW 0 10 -6 Left 2
WINDOW 3 -299 153 Left 2
WINDOW 123 0 0 Left 2
WINDOW 39 0 0 Left 2
SYMATTR InstName Ue
SYMATTR Value PULSE(0 5 0 0.1u 0.1u 0 0.2u)
SYMBOL voltage 48 368 R0
WINDOW 123 0 0 Left 2
WINDOW 39 0 0 Left 2
SYMATTR InstName VCC
SYMATTR Value 5V
SYMBOL res 192 304 R90
WINDOW 0 0 56 VBottom 2
WINDOW 3 32 56 VTop 2
SYMATTR InstName R3
SYMATTR Value 10k
SYMBOL res 336 304 R90
WINDOW 0 0 56 VBottom 2
WINDOW 3 32 56 VTop 2
SYMATTR InstName R2
SYMATTR Value 4.7k
SYMBOL res 208 480 R180
WINDOW 0 36 76 Left 2
WINDOW 3 36 40 Left 2
SYMATTR InstName R1
SYMATTR Value 4.7k
TEXT -152 344 Left 2 !.tran 6u
