Version 4
SHEET 1 880 680
WIRE 160 144 128 144
WIRE 336 160 224 160
WIRE 160 176 16 176
WIRE 336 192 336 160
WIRE 16 240 16 176
WIRE 128 288 128 144
WIRE 336 288 336 272
WIRE 336 288 128 288
WIRE -144 304 -144 272
WIRE -144 304 -256 304
WIRE 336 320 336 288
WIRE -256 352 -256 304
WIRE -144 352 -144 304
WIRE 16 432 16 320
WIRE 176 432 16 432
WIRE 336 432 336 400
WIRE 336 432 176 432
WIRE 176 464 176 432
FLAG 176 464 0
FLAG 192 128 +15V
FLAG 192 192 -15V
FLAG -256 352 0
FLAG -144 432 -15V
FLAG -144 192 +15V
SYMBOL Opamps\\LT1014 192 96 R0
SYMATTR InstName U1
SYMBOL res 320 176 R0
SYMATTR InstName R1
SYMATTR Value 1k
SYMBOL res 320 304 R0
SYMATTR InstName R2
SYMATTR Value 1k
SYMBOL voltage 16 224 R0
WINDOW 123 0 0 Left 2
WINDOW 39 0 0 Left 2
SYMATTR InstName V1
SYMATTR Value PULSE(0 1 10u 10u 10u 0.5 1)
SYMBOL Misc\\battery -144 336 R0
WINDOW 123 0 0 Left 2
WINDOW 39 0 0 Left 2
SYMATTR InstName V2
SYMATTR Value 15
SYMBOL Misc\\battery -144 176 R0
WINDOW 123 0 0 Left 2
WINDOW 39 0 0 Left 2
SYMATTR InstName V3
SYMATTR Value 15
TEXT 16 288 Left 2 !.tran 0 1 0
