Version 4
SHEET 1 880 680
WIRE 144 80 32 80
WIRE 288 80 224 80
WIRE 384 80 368 80
WIRE 32 112 32 80
WIRE 384 160 384 80
WIRE 32 256 32 192
WIRE 384 256 384 224
WIRE 384 256 32 256
WIRE 32 304 32 256
FLAG 32 304 0
SYMBOL voltage 32 96 R0
WINDOW 123 24 124 Left 2
WINDOW 39 0 0 Left 2
SYMATTR InstName V1
SYMATTR Value ""
SYMATTR Value2 AC 0.5
SYMBOL ind 128 96 R270
WINDOW 0 32 56 VTop 2
WINDOW 3 5 56 VBottom 2
SYMATTR InstName L1
SYMATTR Value 1m
SYMBOL res 384 64 R90
WINDOW 0 0 56 VBottom 2
WINDOW 3 32 56 VTop 2
SYMATTR InstName R1
SYMATTR Value 1k
SYMBOL cap 368 160 R0
SYMATTR InstName C1
SYMATTR Value 100n
TEXT 64 280 Left 2 !.ac dec 20 1 1Meg
